          12
 
 C    2.73861278752583        2.73861278752583       0.0000000E+00
 C    2.73861278752583        5.47722557505166       0.0000000E+00
 C    2.73861278752583        8.21583836257749       0.0000000E+00
 C    5.47722557505166        2.73861278752583       0.0000000E+00
 C    5.47722557505166        5.47722557505166       0.0000000E+00
 C    5.47722557505166        8.21583836257749       0.0000000E+00
 C    8.21583836257749        2.73861278752583       0.0000000E+00
 C    8.21583836257749        5.47722557505166       0.0000000E+00
 C    8.21583836257749        8.21583836257749       0.0000000E+00
 C    2.73861278752583        2.73861278752583       0.0000000E+00
 C    2.73861278752583        5.47722557505166       0.0000000E+00
 C    2.73861278752583        8.21583836257749       0.0000000E+00
