          16
 
 C    2.52982212813470        2.52982212813470       0.0000000E+00
 C    2.52982212813470        5.05964425626941       0.0000000E+00
 C    2.52982212813470        7.58946638440411       0.0000000E+00
 C    2.52982212813470        10.1192885125388       0.0000000E+00
 C    2.52982212813470        12.6491106406735       0.0000000E+00
 C    5.05964425626941        2.52982212813470       0.0000000E+00
 C    5.05964425626941        5.05964425626941       0.0000000E+00
 C    5.05964425626941        7.58946638440411       0.0000000E+00
 C    5.05964425626941        10.1192885125388       0.0000000E+00
 C    5.05964425626941        12.6491106406735       0.0000000E+00
 C    7.58946638440411        2.52982212813470       0.0000000E+00
 C    7.58946638440411        5.05964425626941       0.0000000E+00
 C    7.58946638440411        7.58946638440411       0.0000000E+00
 C    7.58946638440411        10.1192885125388       0.0000000E+00
 C    7.58946638440411        12.6491106406735       0.0000000E+00
 C    10.1192885125388        2.52982212813470       0.0000000E+00
