           4
 
 C    2.10818509107172        2.10818509107172        2.10818509107172     
 C    2.10818509107172        4.21637018214343        2.10818509107172     
 C    4.21637018214343        2.10818509107172        2.10818509107172     
 C    4.21637018214343        4.21637018214343        2.10818509107172     
