          12
 
 C   0.866025403784439       0.866025403784439       0.0000000E+00
 C   0.866025403784439        1.73205080756888       0.0000000E+00
 C   0.866025403784439        2.59807621135332       0.0000000E+00
 C   0.866025403784439        3.46410161513775       0.0000000E+00
 C    1.73205080756888       0.866025403784439       0.0000000E+00
 C    1.73205080756888        1.73205080756888       0.0000000E+00
 C    1.73205080756888        2.59807621135332       0.0000000E+00
 C    1.73205080756888        3.46410161513775       0.0000000E+00
 C    2.59807621135332       0.866025403784439       0.0000000E+00
 C    2.59807621135332        1.73205080756888       0.0000000E+00
 C    2.59807621135332        2.59807621135332       0.0000000E+00
 C    2.59807621135332        3.46410161513775       0.0000000E+00
